169

C         -3.59120       -2.09130       -1.50360
C         -2.90690       -1.44390       -0.30740
O         -1.58020       -1.90200       -0.20150
C         -3.66600       -1.74180        0.97520
O         -2.82740       -0.05540       -0.50110
C         -1.53990        0.21590       -0.96820
C         -0.74350       -0.78240       -0.13690
C          0.73140       -1.14140       -0.46180
C          0.91550       -2.62810       -0.86590
C          1.71770       -3.49050       -0.21220
C          1.90880       -4.76400       -0.60220
C          2.84340       -5.73920        0.13130
C          3.43910       -5.18360        1.44440
C          4.02970       -6.09170       -0.79250
C          2.07250       -7.02630        0.50590
C          1.26560       -5.15910       -1.71520
C          0.45700       -4.35530       -2.42750
C         -0.22410       -4.82160       -3.72230
C         -0.23990       -6.35850       -3.90180
C          0.54880       -4.20920       -4.90930
C         -1.69800       -4.36170       -3.77760
C          0.31870       -3.09340       -1.98080
C          1.61230       -0.84900        0.78370
C          1.30030       -1.32660        2.00620
C          2.06200       -1.12550        3.10020
C          1.69550       -1.74980        4.45740
C          2.53550       -1.22290        5.64590
C          1.92230       -3.27220        4.36450
C          0.22010       -1.48980        4.82080
C          3.18270       -0.39890        2.93590
C          3.57180        0.09280        1.74750
C          4.85210        0.92050        1.55440
C          5.78200        0.94190        2.78960
C          4.43560        2.37900        1.26270
C          5.69400        0.37930        0.37520
C          2.77260       -0.17530        0.70140
O          1.19090       -0.44510       -1.61370
P          1.08810        1.14080       -1.90200
N          2.72040        1.81520       -2.05660
C          2.72420        3.24210       -2.30860
C          3.49610        1.12040       -3.07390
O          0.19030        1.82200       -0.74870
C         -1.21940        1.73200       -0.88330
C         -1.91860        2.44090        0.30630
C         -2.77870        3.46650        0.14260
C         -3.42580        4.08680        1.14570
C         -4.35590        5.27560        0.85680
C         -5.12920        5.79350        2.09180
C         -5.40930        4.89450       -0.20800
C         -3.49390        6.44560        0.33420
C         -3.21000        3.61380        2.38400
C         -2.36770        2.59670        2.63270
C         -2.15150        2.04220        4.04620
C         -2.50010        0.53690        4.03690
C         -3.04720        2.67980        5.13490
C         -0.68310        2.26710        4.46160
C         -1.71350        2.06680        1.58150
C         -1.68420        2.47200       -2.16610
C         -2.77920        2.08160       -2.84370
C         -3.28660        2.75150       -3.89230
C         -4.57880        2.26610       -4.56350
C         -4.96070        3.04920       -5.84120
C         -5.74010        2.42660       -3.55660
C         -4.44690        0.78020       -4.96750
C         -2.65120        3.88020       -4.25100
C         -1.55920        4.34540       -3.61740
C         -0.91410        5.68740       -4.00370
C          0.62420        5.58350       -4.05820
C         -1.30370        6.73090       -2.93590
C         -1.36250        6.23310       -5.38080
C         -1.11080        3.62360       -2.57110
H         -3.61880       -3.19910       -1.39800
H         -4.63970       -1.73080       -1.60790
H         -3.06850       -1.85350       -2.45640
H         -3.75070       -2.83910        1.14530
H         -3.15020       -1.30710        1.85920
H         -4.69500       -1.31730        0.94120
H         -1.46890       -0.12900       -2.02850
H         -0.80100       -0.44960        0.91950
H          2.26950       -3.14420        0.66690
H          2.63430       -4.93430        2.16930
H          4.09220       -5.93230        1.94710
H          4.07460       -4.28440        1.28090
H          3.70730       -6.59520       -1.73060
H          4.59460       -5.17550       -1.07990
H          4.74370       -6.78290       -0.28980
H          1.18350       -6.78760        1.13340
H          1.71660       -7.59710       -0.37910
H          2.71250       -7.72930        1.08570
H          1.43800       -6.18490       -2.06220
H         -0.73110       -6.86360       -3.03860
H         -0.80390       -6.65630       -4.81450
H          0.77850       -6.78600       -4.03740
H          0.54200       -3.09630       -4.87900
H          1.61340       -4.53740       -4.90500
H          0.10560       -4.51610       -5.88360
H         -2.25460       -4.70680       -2.87680
H         -1.80520       -3.25880       -3.85600
H         -2.22180       -4.76990       -4.67120
H         -0.29480       -2.39160       -2.56510
H          0.39750       -1.94950        2.09750
H          3.61190       -1.49350        5.56130
H          2.44680       -0.11720        5.75130
H          2.19600       -1.66250        6.61110
H          2.98090       -3.49930        4.10320
H          1.70050       -3.77940        5.33040
H          1.26580       -3.73830        3.59650
H          0.03650       -0.39630        4.88310
H         -0.49650       -1.93080        4.09510
H         -0.04470       -1.92430        5.81090
H          3.82510       -0.21440        3.80260
H          6.10760       -0.08450        3.07430
H          6.70770        1.52790        2.58950
H          5.30590        1.42790        3.67070
H          3.80930        2.46400        0.34850
H          3.84380        2.80340        2.10560
H          5.32250        3.03410        1.10800
H          5.93160       -0.69920        0.51980
H          5.19670        0.48990       -0.61230
H          6.65880        0.92650        0.27930
H          3.10980        0.17710       -0.27420
H          2.14600        3.79310       -1.53180
H          3.76160        3.64720       -2.26800
H          2.30850        3.47050       -3.31480
H          3.58000        0.03130       -2.85350
H          3.05200        1.23740       -4.08960
H          4.54090        1.50660       -3.10740
H         -2.98680        3.85500       -0.86010
H         -4.44940        6.17940        2.88470
H         -5.79530        6.64510        1.82480
H         -5.78360        5.00540        2.52860
H         -5.99770        4.00630        0.11620
H         -6.12530        5.72820       -0.38620
H         -4.96520        4.66350       -1.20030
H         -2.71610        6.73620        1.07680
H         -2.96970        6.18580       -0.61000
H         -4.11080        7.34720        0.11990
H         -3.73770        4.07940        3.22240
H         -3.55170        0.37370        3.70740
H         -1.84690       -0.04790        3.35510
H         -2.39680        0.08260        5.04780
H         -4.13080        2.54320        4.91470
H         -2.87160        2.20900        6.12890
H         -2.84080        3.76530        5.26900
H         -0.43520        3.35300        4.45500
H         -0.49020        1.88720        5.49030
H          0.03790        1.75710        3.78540
H         -0.98420        1.27530        1.77910
H         -3.33120        1.20000       -2.50070
H         -4.15760        2.99570       -6.61110
H         -5.88140        2.63390       -6.31050
H         -5.18780        4.11890       -5.63110
H         -5.58810        1.82880       -2.63050
H         -5.85800        3.49070       -3.24950
H         -6.70770        2.09590       -3.99720
H         -3.57720        0.63020       -5.64680
H         -4.31930        0.09750       -4.09950
H         -5.35710        0.42320       -5.50010
H         -3.06950        4.46700       -5.07460
H          0.94280        4.76280       -4.74030
H          1.09050        6.52460       -4.42730
H          1.06870        5.41680       -3.05430
H         -2.40950        6.85170       -2.88270
H         -0.94210        6.44110       -1.92390
H         -0.86700        7.72930       -3.16420
H         -1.15840        5.50200       -6.19620
H         -2.44070        6.50830       -5.40310
H         -0.82080        7.16940       -5.64530
H         -0.27170        4.01990       -1.98150
